Version 4.1
SHEET 1 880 680
WIRE 80 16 -96 16
WIRE 80 48 80 16
WIRE -96 96 -96 16
WIRE 80 144 80 128
WIRE 224 144 80 144
WIRE 272 144 224 144
WIRE 80 160 80 144
WIRE 224 192 224 144
WIRE -96 288 -96 176
WIRE 80 288 80 240
WIRE 224 288 224 256
FLAG 80 288 0
FLAG -96 288 0
FLAG 272 144 Output
FLAG 224 288 0
SYMBOL res 64 32 R0
SYMATTR InstName R1
SYMATTR Value 10k
SYMBOL res 64 144 R0
SYMATTR InstName R2
SYMATTR Value 20k
SYMBOL voltage -96 80 R0
WINDOW 123 0 0 Left 0
WINDOW 39 0 0 Left 0
SYMATTR InstName V1
SYMATTR Value 10
SYMBOL cap 208 192 R0
SYMATTR InstName C1
SYMATTR Value 10n
TEXT -80 -24 Left 2 ;Voltage divider
TEXT -128 312 Left 2 !.tran 1 startup
