Version 4.1
SHEET 1 880 680
FLAG 96 160 0
FLAG 320 240 0
SYMBOL voltage 96 16 R0
SYMATTR InstName V1
SYMBOL res 304 -64 R0
SYMATTR InstName R1
SYMBOL res 304 96 R0
SYMATTR InstName R2
